<?xml version="1.0" encoding="UTF-8"?>

<!-- generated on 10/03/15 21:03:39 by SUMO netconvert Version 0.24.0
<?xml version="1.0" encoding="UTF-8"?>

<configuration xmlns:xsi="http://www.w3.org/2001/XMLSchema-instance" xsi:noNamespaceSchemaLocation="http://sumo.dlr.de/xsd/netconvertConfiguration.xsd">

    <input>
        <node-files value="hello.nod.xml"/>
        <edge-files value="hello.edg.xml"/>
        <connection-files value="hello.con.xml"/>
    </input>

    <output>
        <output-file value="hello.net.xml"/>
    </output>

</configuration>
-->

<net version="0.13" xmlns:xsi="http://www.w3.org/2001/XMLSchema-instance" xsi:noNamespaceSchemaLocation="http://sumo.dlr.de/xsd/net_file.xsd">

    <location netOffset="0.00,0.00" convBoundary="0.00,0.00,300.00,300.00" origBoundary="0.00,0.00,300.00,300.00" projParameter="!"/>

    <edge id=":0_0" function="internal">
        <lane id=":0_0_0" index="0" speed="10.00" length="7.90" shape="-1.65,3.25 -1.34,1.11 -0.42,-0.42 1.11,-1.34 3.25,-1.65"/>
    </edge>
    <edge id=":0_1" function="internal">
        <lane id=":0_1_0" index="0" speed="10.00" length="2.80" shape="-1.65,3.25 -0.83,2.01 -0.00,1.60 0.35,1.77"/>
    </edge>
    <edge id=":0_4" function="internal">
        <lane id=":0_4_0" index="0" speed="10.00" length="2.02" shape="0.35,1.77 0.82,2.01 1.65,3.25"/>
    </edge>
    <edge id=":0_2" function="internal">
        <lane id=":0_2_0" index="0" speed="10.00" length="2.58" shape="3.25,1.65 2.55,1.75 2.05,2.05 1.75,2.55 1.65,3.25"/>
    </edge>
    <edge id=":0_3" function="internal">
        <lane id=":0_3_0" index="0" speed="10.00" length="2.20" shape="3.25,1.65 2.01,0.82 1.69,0.19"/>
    </edge>
    <edge id=":0_5" function="internal">
        <lane id=":0_5_0" index="0" speed="10.00" length="2.62" shape="1.69,0.19 1.60,-0.00 2.01,-0.83 3.25,-1.65"/>
    </edge>
    <edge id=":1_0" function="internal">
        <lane id=":1_0_0" index="0" speed="10.00" length="5.00" shape="98.35,4.75 98.16,3.39 97.57,2.42 96.61,1.84 95.25,1.65"/>
    </edge>
    <edge id=":1_1" function="internal">
        <lane id=":1_1_0" index="0" speed="10.00" length="10.32" shape="98.35,4.75 98.75,1.95 99.95,-0.05 101.95,-1.25 104.75,-1.65"/>
    </edge>
    <edge id=":1_2" function="internal">
        <lane id=":1_2_0" index="0" speed="10.00" length="4.82" shape="98.35,4.75 99.18,3.51 100.00,3.10 100.83,3.51 101.65,4.75"/>
    </edge>
    <edge id=":1_3" function="internal">
        <lane id=":1_3_0" index="0" speed="10.00" length="5.00" shape="104.75,1.65 103.39,1.84 102.43,2.42 101.84,3.39 101.65,4.75"/>
    </edge>
    <edge id=":1_4" function="internal">
        <lane id=":1_4_0" index="0" speed="10.00" length="9.50" shape="104.75,1.65 95.25,1.65"/>
    </edge>
    <edge id=":1_5" function="internal">
        <lane id=":1_5_0" index="0" speed="10.00" length="4.82" shape="104.75,1.65 103.51,0.83 103.10,0.00 103.51,-0.82 104.75,-1.65"/>
    </edge>
    <edge id=":1_6" function="internal">
        <lane id=":1_6_0" index="0" speed="10.00" length="9.50" shape="95.25,-1.65 104.75,-1.65"/>
    </edge>
    <edge id=":1_7" function="internal">
        <lane id=":1_7_0" index="0" speed="10.00" length="10.32" shape="95.25,-1.65 98.05,-1.25 100.05,-0.05 101.25,1.95 101.65,4.75"/>
    </edge>
    <edge id=":1_8" function="internal">
        <lane id=":1_8_0" index="0" speed="10.00" length="4.82" shape="95.25,-1.65 96.49,-0.83 96.90,-0.00 96.49,0.82 95.25,1.65"/>
    </edge>
    <edge id=":10_0" function="internal">
        <lane id=":10_0_0" index="0" speed="10.00" length="5.00" shape="198.35,204.75 198.16,203.39 197.57,202.42 196.61,201.84 195.25,201.65"/>
    </edge>
    <edge id=":10_1" function="internal">
        <lane id=":10_1_0" index="0" speed="10.00" length="9.50" shape="198.35,204.75 198.35,195.25"/>
    </edge>
    <edge id=":10_2" function="internal">
        <lane id=":10_2_0" index="0" speed="10.00" length="5.28" shape="198.35,204.75 198.75,201.95 199.95,199.95 200.05,199.89"/>
    </edge>
    <edge id=":10_3" function="internal">
        <lane id=":10_3_0" index="0" speed="10.00" length="2.41" shape="198.35,204.75 199.17,203.51 200.00,203.10"/>
    </edge>
    <edge id=":10_16" function="internal">
        <lane id=":10_16_0" index="0" speed="10.00" length="5.04" shape="200.05,199.89 201.95,198.75 204.75,198.35"/>
    </edge>
    <edge id=":10_17" function="internal">
        <lane id=":10_17_0" index="0" speed="10.00" length="2.41" shape="200.00,203.10 200.82,203.51 201.65,204.75"/>
    </edge>
    <edge id=":10_4" function="internal">
        <lane id=":10_4_0" index="0" speed="10.00" length="5.00" shape="204.75,201.65 203.39,201.84 202.42,202.43 201.84,203.39 201.65,204.75"/>
    </edge>
    <edge id=":10_5" function="internal">
        <lane id=":10_5_0" index="0" speed="10.00" length="9.50" shape="204.75,201.65 195.25,201.65"/>
    </edge>
    <edge id=":10_6" function="internal">
        <lane id=":10_6_0" index="0" speed="10.00" length="5.28" shape="204.75,201.65 201.95,201.25 199.95,200.05 199.89,199.95"/>
    </edge>
    <edge id=":10_7" function="internal">
        <lane id=":10_7_0" index="0" speed="10.00" length="2.41" shape="204.75,201.65 203.51,200.83 203.10,200.00"/>
    </edge>
    <edge id=":10_18" function="internal">
        <lane id=":10_18_0" index="0" speed="10.00" length="5.04" shape="199.89,199.95 198.75,198.05 198.35,195.25"/>
    </edge>
    <edge id=":10_19" function="internal">
        <lane id=":10_19_0" index="0" speed="10.00" length="2.41" shape="203.10,200.00 203.51,199.18 204.75,198.35"/>
    </edge>
    <edge id=":10_8" function="internal">
        <lane id=":10_8_0" index="0" speed="10.00" length="5.00" shape="201.65,195.25 201.84,196.61 202.43,197.58 203.39,198.16 204.75,198.35"/>
    </edge>
    <edge id=":10_9" function="internal">
        <lane id=":10_9_0" index="0" speed="10.00" length="9.50" shape="201.65,195.25 201.65,204.75"/>
    </edge>
    <edge id=":10_10" function="internal">
        <lane id=":10_10_0" index="0" speed="10.00" length="5.28" shape="201.65,195.25 201.25,198.05 200.05,200.05 199.95,200.11"/>
    </edge>
    <edge id=":10_11" function="internal">
        <lane id=":10_11_0" index="0" speed="10.00" length="2.41" shape="201.65,195.25 200.83,196.49 200.00,196.90"/>
    </edge>
    <edge id=":10_20" function="internal">
        <lane id=":10_20_0" index="0" speed="10.00" length="5.04" shape="199.95,200.11 198.05,201.25 195.25,201.65"/>
    </edge>
    <edge id=":10_21" function="internal">
        <lane id=":10_21_0" index="0" speed="10.00" length="2.41" shape="200.00,196.90 199.18,196.49 198.35,195.25"/>
    </edge>
    <edge id=":10_12" function="internal">
        <lane id=":10_12_0" index="0" speed="10.00" length="5.00" shape="195.25,198.35 196.61,198.16 197.58,197.57 198.16,196.61 198.35,195.25"/>
    </edge>
    <edge id=":10_13" function="internal">
        <lane id=":10_13_0" index="0" speed="10.00" length="9.50" shape="195.25,198.35 204.75,198.35"/>
    </edge>
    <edge id=":10_14" function="internal">
        <lane id=":10_14_0" index="0" speed="10.00" length="5.28" shape="195.25,198.35 198.05,198.75 200.05,199.95 200.11,200.05"/>
    </edge>
    <edge id=":10_15" function="internal">
        <lane id=":10_15_0" index="0" speed="10.00" length="2.41" shape="195.25,198.35 196.49,199.17 196.90,200.00"/>
    </edge>
    <edge id=":10_22" function="internal">
        <lane id=":10_22_0" index="0" speed="10.00" length="5.04" shape="200.11,200.05 201.25,201.95 201.65,204.75"/>
    </edge>
    <edge id=":10_23" function="internal">
        <lane id=":10_23_0" index="0" speed="10.00" length="2.41" shape="196.90,200.00 196.49,200.82 195.25,201.65"/>
    </edge>
    <edge id=":11_0" function="internal">
        <lane id=":11_0_0" index="0" speed="10.00" length="5.00" shape="298.35,204.75 298.16,203.39 297.58,202.42 296.61,201.84 295.25,201.65"/>
    </edge>
    <edge id=":11_1" function="internal">
        <lane id=":11_1_0" index="0" speed="10.00" length="9.50" shape="298.35,204.75 298.35,195.25"/>
    </edge>
    <edge id=":11_2" function="internal">
        <lane id=":11_2_0" index="0" speed="10.00" length="4.82" shape="298.35,204.75 299.17,203.51 300.00,203.10 300.82,203.51 301.65,204.75"/>
    </edge>
    <edge id=":11_3" function="internal">
        <lane id=":11_3_0" index="0" speed="10.00" length="9.50" shape="301.65,195.25 301.65,204.75"/>
    </edge>
    <edge id=":11_4" function="internal">
        <lane id=":11_4_0" index="0" speed="10.00" length="10.32" shape="301.65,195.25 301.25,198.05 300.05,200.05 298.05,201.25 295.25,201.65"/>
    </edge>
    <edge id=":11_5" function="internal">
        <lane id=":11_5_0" index="0" speed="10.00" length="4.82" shape="301.65,195.25 300.83,196.49 300.00,196.90 299.18,196.49 298.35,195.25"/>
    </edge>
    <edge id=":11_6" function="internal">
        <lane id=":11_6_0" index="0" speed="10.00" length="5.00" shape="295.25,198.35 296.61,198.16 297.58,197.57 298.16,196.61 298.35,195.25"/>
    </edge>
    <edge id=":11_7" function="internal">
        <lane id=":11_7_0" index="0" speed="10.00" length="10.32" shape="295.25,198.35 298.05,198.75 300.05,199.95 301.25,201.95 301.65,204.75"/>
    </edge>
    <edge id=":11_8" function="internal">
        <lane id=":11_8_0" index="0" speed="10.00" length="4.82" shape="295.25,198.35 296.49,199.17 296.90,200.00 296.49,200.82 295.25,201.65"/>
    </edge>
    <edge id=":12_0" function="internal">
        <lane id=":12_0_0" index="0" speed="10.00" length="7.90" shape="3.25,301.65 1.11,301.34 -0.43,300.42 -1.34,298.89 -1.65,296.75"/>
    </edge>
    <edge id=":12_1" function="internal">
        <lane id=":12_1_0" index="0" speed="10.00" length="2.80" shape="3.25,301.65 2.01,300.83 1.60,300.00 1.77,299.65"/>
    </edge>
    <edge id=":12_4" function="internal">
        <lane id=":12_4_0" index="0" speed="10.00" length="2.02" shape="1.77,299.65 2.01,299.18 3.25,298.35"/>
    </edge>
    <edge id=":12_2" function="internal">
        <lane id=":12_2_0" index="0" speed="10.00" length="2.58" shape="1.65,296.75 1.75,297.45 2.05,297.95 2.55,298.25 3.25,298.35"/>
    </edge>
    <edge id=":12_3" function="internal">
        <lane id=":12_3_0" index="0" speed="10.00" length="2.20" shape="1.65,296.75 0.83,297.99 0.19,298.31"/>
    </edge>
    <edge id=":12_5" function="internal">
        <lane id=":12_5_0" index="0" speed="10.00" length="2.62" shape="0.19,298.31 0.00,298.40 -0.82,297.99 -1.65,296.75"/>
    </edge>
    <edge id=":13_0" function="internal">
        <lane id=":13_0_0" index="0" speed="10.00" length="9.50" shape="104.75,301.65 95.25,301.65"/>
    </edge>
    <edge id=":13_1" function="internal">
        <lane id=":13_1_0" index="0" speed="10.00" length="10.32" shape="104.75,301.65 101.95,301.25 99.95,300.05 98.75,298.05 98.35,295.25"/>
    </edge>
    <edge id=":13_2" function="internal">
        <lane id=":13_2_0" index="0" speed="10.00" length="4.82" shape="104.75,301.65 103.51,300.83 103.10,300.00 103.51,299.18 104.75,298.35"/>
    </edge>
    <edge id=":13_3" function="internal">
        <lane id=":13_3_0" index="0" speed="10.00" length="5.00" shape="101.65,295.25 101.84,296.61 102.43,297.58 103.39,298.16 104.75,298.35"/>
    </edge>
    <edge id=":13_4" function="internal">
        <lane id=":13_4_0" index="0" speed="10.00" length="10.32" shape="101.65,295.25 101.25,298.05 100.05,300.05 98.05,301.25 95.25,301.65"/>
    </edge>
    <edge id=":13_5" function="internal">
        <lane id=":13_5_0" index="0" speed="10.00" length="4.82" shape="101.65,295.25 100.82,296.49 100.00,296.90 99.17,296.49 98.35,295.25"/>
    </edge>
    <edge id=":13_6" function="internal">
        <lane id=":13_6_0" index="0" speed="10.00" length="5.00" shape="95.25,298.35 96.61,298.16 97.57,297.58 98.16,296.61 98.35,295.25"/>
    </edge>
    <edge id=":13_7" function="internal">
        <lane id=":13_7_0" index="0" speed="10.00" length="9.50" shape="95.25,298.35 104.75,298.35"/>
    </edge>
    <edge id=":13_8" function="internal">
        <lane id=":13_8_0" index="0" speed="10.00" length="4.82" shape="95.25,298.35 96.49,299.17 96.90,300.00 96.49,300.82 95.25,301.65"/>
    </edge>
    <edge id=":14_0" function="internal">
        <lane id=":14_0_0" index="0" speed="10.00" length="9.50" shape="204.75,301.65 195.25,301.65"/>
    </edge>
    <edge id=":14_1" function="internal">
        <lane id=":14_1_0" index="0" speed="10.00" length="10.32" shape="204.75,301.65 201.95,301.25 199.95,300.05 198.75,298.05 198.35,295.25"/>
    </edge>
    <edge id=":14_2" function="internal">
        <lane id=":14_2_0" index="0" speed="10.00" length="4.82" shape="204.75,301.65 203.51,300.83 203.10,300.00 203.51,299.18 204.75,298.35"/>
    </edge>
    <edge id=":14_3" function="internal">
        <lane id=":14_3_0" index="0" speed="10.00" length="5.00" shape="201.65,295.25 201.84,296.61 202.43,297.58 203.39,298.16 204.75,298.35"/>
    </edge>
    <edge id=":14_4" function="internal">
        <lane id=":14_4_0" index="0" speed="10.00" length="10.32" shape="201.65,295.25 201.25,298.05 200.05,300.05 198.05,301.25 195.25,301.65"/>
    </edge>
    <edge id=":14_5" function="internal">
        <lane id=":14_5_0" index="0" speed="10.00" length="4.82" shape="201.65,295.25 200.83,296.49 200.00,296.90 199.18,296.49 198.35,295.25"/>
    </edge>
    <edge id=":14_6" function="internal">
        <lane id=":14_6_0" index="0" speed="10.00" length="5.00" shape="195.25,298.35 196.61,298.16 197.58,297.58 198.16,296.61 198.35,295.25"/>
    </edge>
    <edge id=":14_7" function="internal">
        <lane id=":14_7_0" index="0" speed="10.00" length="9.50" shape="195.25,298.35 204.75,298.35"/>
    </edge>
    <edge id=":14_8" function="internal">
        <lane id=":14_8_0" index="0" speed="10.00" length="4.82" shape="195.25,298.35 196.49,299.17 196.90,300.00 196.49,300.82 195.25,301.65"/>
    </edge>
    <edge id=":15_0" function="internal">
        <lane id=":15_0_0" index="0" speed="10.00" length="7.90" shape="301.65,296.75 301.34,298.89 300.42,300.42 298.89,301.34 296.75,301.65"/>
    </edge>
    <edge id=":15_1" function="internal">
        <lane id=":15_1_0" index="0" speed="10.00" length="2.80" shape="301.65,296.75 300.83,297.99 300.00,298.40 299.65,298.23"/>
    </edge>
    <edge id=":15_4" function="internal">
        <lane id=":15_4_0" index="0" speed="10.00" length="2.02" shape="299.65,298.23 299.18,297.99 298.35,296.75"/>
    </edge>
    <edge id=":15_2" function="internal">
        <lane id=":15_2_0" index="0" speed="10.00" length="2.58" shape="296.75,298.35 297.45,298.25 297.95,297.95 298.25,297.45 298.35,296.75"/>
    </edge>
    <edge id=":15_3" function="internal">
        <lane id=":15_3_0" index="0" speed="10.00" length="2.20" shape="296.75,298.35 297.99,299.17 298.31,299.81"/>
    </edge>
    <edge id=":15_5" function="internal">
        <lane id=":15_5_0" index="0" speed="10.00" length="2.62" shape="298.31,299.81 298.40,300.00 297.99,300.82 296.75,301.65"/>
    </edge>
    <edge id=":2_0" function="internal">
        <lane id=":2_0_0" index="0" speed="10.00" length="5.00" shape="198.35,4.75 198.16,3.39 197.57,2.42 196.61,1.84 195.25,1.65"/>
    </edge>
    <edge id=":2_1" function="internal">
        <lane id=":2_1_0" index="0" speed="10.00" length="10.32" shape="198.35,4.75 198.75,1.95 199.95,-0.05 201.95,-1.25 204.75,-1.65"/>
    </edge>
    <edge id=":2_2" function="internal">
        <lane id=":2_2_0" index="0" speed="10.00" length="4.82" shape="198.35,4.75 199.17,3.51 200.00,3.10 200.82,3.51 201.65,4.75"/>
    </edge>
    <edge id=":2_3" function="internal">
        <lane id=":2_3_0" index="0" speed="10.00" length="5.00" shape="204.75,1.65 203.39,1.84 202.42,2.42 201.84,3.39 201.65,4.75"/>
    </edge>
    <edge id=":2_4" function="internal">
        <lane id=":2_4_0" index="0" speed="10.00" length="9.50" shape="204.75,1.65 195.25,1.65"/>
    </edge>
    <edge id=":2_5" function="internal">
        <lane id=":2_5_0" index="0" speed="10.00" length="4.82" shape="204.75,1.65 203.51,0.83 203.10,0.00 203.51,-0.82 204.75,-1.65"/>
    </edge>
    <edge id=":2_6" function="internal">
        <lane id=":2_6_0" index="0" speed="10.00" length="9.50" shape="195.25,-1.65 204.75,-1.65"/>
    </edge>
    <edge id=":2_7" function="internal">
        <lane id=":2_7_0" index="0" speed="10.00" length="10.32" shape="195.25,-1.65 198.05,-1.25 200.05,-0.05 201.25,1.95 201.65,4.75"/>
    </edge>
    <edge id=":2_8" function="internal">
        <lane id=":2_8_0" index="0" speed="10.00" length="4.82" shape="195.25,-1.65 196.49,-0.83 196.90,-0.00 196.49,0.82 195.25,1.65"/>
    </edge>
    <edge id=":3_0" function="internal">
        <lane id=":3_0_0" index="0" speed="10.00" length="2.58" shape="298.35,3.25 298.25,2.55 297.95,2.05 297.45,1.75 296.75,1.65"/>
    </edge>
    <edge id=":3_1" function="internal">
        <lane id=":3_1_0" index="0" speed="10.00" length="2.20" shape="298.35,3.25 299.17,2.01 299.81,1.69"/>
    </edge>
    <edge id=":3_4" function="internal">
        <lane id=":3_4_0" index="0" speed="10.00" length="2.62" shape="299.81,1.69 300.00,1.60 300.82,2.01 301.65,3.25"/>
    </edge>
    <edge id=":3_2" function="internal">
        <lane id=":3_2_0" index="0" speed="10.00" length="7.90" shape="296.75,-1.65 298.89,-1.34 300.42,-0.43 301.34,1.11 301.65,3.25"/>
    </edge>
    <edge id=":3_3" function="internal">
        <lane id=":3_3_0" index="0" speed="10.00" length="2.80" shape="296.75,-1.65 297.99,-0.83 298.40,-0.00 298.23,0.35"/>
    </edge>
    <edge id=":3_5" function="internal">
        <lane id=":3_5_0" index="0" speed="10.00" length="2.02" shape="298.23,0.35 297.99,0.82 296.75,1.65"/>
    </edge>
    <edge id=":4_0" function="internal">
        <lane id=":4_0_0" index="0" speed="10.00" length="9.50" shape="-1.65,104.75 -1.65,95.25"/>
    </edge>
    <edge id=":4_1" function="internal">
        <lane id=":4_1_0" index="0" speed="10.00" length="10.32" shape="-1.65,104.75 -1.25,101.95 -0.05,99.95 1.95,98.75 4.75,98.35"/>
    </edge>
    <edge id=":4_2" function="internal">
        <lane id=":4_2_0" index="0" speed="10.00" length="4.82" shape="-1.65,104.75 -0.83,103.51 -0.00,103.10 0.82,103.51 1.65,104.75"/>
    </edge>
    <edge id=":4_3" function="internal">
        <lane id=":4_3_0" index="0" speed="10.00" length="5.00" shape="4.75,101.65 3.39,101.84 2.42,102.43 1.84,103.39 1.65,104.75"/>
    </edge>
    <edge id=":4_4" function="internal">
        <lane id=":4_4_0" index="0" speed="10.00" length="10.32" shape="4.75,101.65 1.95,101.25 -0.05,100.05 -1.25,98.05 -1.65,95.25"/>
    </edge>
    <edge id=":4_5" function="internal">
        <lane id=":4_5_0" index="0" speed="10.00" length="4.82" shape="4.75,101.65 3.51,100.82 3.10,100.00 3.51,99.17 4.75,98.35"/>
    </edge>
    <edge id=":4_6" function="internal">
        <lane id=":4_6_0" index="0" speed="10.00" length="5.00" shape="1.65,95.25 1.84,96.61 2.42,97.57 3.39,98.16 4.75,98.35"/>
    </edge>
    <edge id=":4_7" function="internal">
        <lane id=":4_7_0" index="0" speed="10.00" length="9.50" shape="1.65,95.25 1.65,104.75"/>
    </edge>
    <edge id=":4_8" function="internal">
        <lane id=":4_8_0" index="0" speed="10.00" length="4.82" shape="1.65,95.25 0.83,96.49 0.00,96.90 -0.82,96.49 -1.65,95.25"/>
    </edge>
    <edge id=":5_0" function="internal">
        <lane id=":5_0_0" index="0" speed="10.00" length="5.00" shape="98.35,104.75 98.16,103.39 97.57,102.43 96.61,101.84 95.25,101.65"/>
    </edge>
    <edge id=":5_1" function="internal">
        <lane id=":5_1_0" index="0" speed="10.00" length="9.50" shape="98.35,104.75 98.35,95.25"/>
    </edge>
    <edge id=":5_2" function="internal">
        <lane id=":5_2_0" index="0" speed="10.00" length="5.28" shape="98.35,104.75 98.75,101.95 99.95,99.95 100.05,99.89"/>
    </edge>
    <edge id=":5_3" function="internal">
        <lane id=":5_3_0" index="0" speed="10.00" length="2.41" shape="98.35,104.75 99.18,103.51 100.00,103.10"/>
    </edge>
    <edge id=":5_16" function="internal">
        <lane id=":5_16_0" index="0" speed="10.00" length="5.04" shape="100.05,99.89 101.95,98.75 104.75,98.35"/>
    </edge>
    <edge id=":5_17" function="internal">
        <lane id=":5_17_0" index="0" speed="10.00" length="2.41" shape="100.00,103.10 100.83,103.51 101.65,104.75"/>
    </edge>
    <edge id=":5_4" function="internal">
        <lane id=":5_4_0" index="0" speed="10.00" length="5.00" shape="104.75,101.65 103.39,101.84 102.43,102.43 101.84,103.39 101.65,104.75"/>
    </edge>
    <edge id=":5_5" function="internal">
        <lane id=":5_5_0" index="0" speed="10.00" length="9.50" shape="104.75,101.65 95.25,101.65"/>
    </edge>
    <edge id=":5_6" function="internal">
        <lane id=":5_6_0" index="0" speed="10.00" length="5.28" shape="104.75,101.65 101.95,101.25 99.95,100.05 99.89,99.95"/>
    </edge>
    <edge id=":5_7" function="internal">
        <lane id=":5_7_0" index="0" speed="10.00" length="2.41" shape="104.75,101.65 103.51,100.82 103.10,100.00"/>
    </edge>
    <edge id=":5_18" function="internal">
        <lane id=":5_18_0" index="0" speed="10.00" length="5.04" shape="99.89,99.95 98.75,98.05 98.35,95.25"/>
    </edge>
    <edge id=":5_19" function="internal">
        <lane id=":5_19_0" index="0" speed="10.00" length="2.41" shape="103.10,100.00 103.51,99.17 104.75,98.35"/>
    </edge>
    <edge id=":5_8" function="internal">
        <lane id=":5_8_0" index="0" speed="10.00" length="5.00" shape="101.65,95.25 101.84,96.61 102.43,97.57 103.39,98.16 104.75,98.35"/>
    </edge>
    <edge id=":5_9" function="internal">
        <lane id=":5_9_0" index="0" speed="10.00" length="9.50" shape="101.65,95.25 101.65,104.75"/>
    </edge>
    <edge id=":5_10" function="internal">
        <lane id=":5_10_0" index="0" speed="10.00" length="5.28" shape="101.65,95.25 101.25,98.05 100.05,100.05 99.95,100.11"/>
    </edge>
    <edge id=":5_11" function="internal">
        <lane id=":5_11_0" index="0" speed="10.00" length="2.41" shape="101.65,95.25 100.82,96.49 100.00,96.90"/>
    </edge>
    <edge id=":5_20" function="internal">
        <lane id=":5_20_0" index="0" speed="10.00" length="5.04" shape="99.95,100.11 98.05,101.25 95.25,101.65"/>
    </edge>
    <edge id=":5_21" function="internal">
        <lane id=":5_21_0" index="0" speed="10.00" length="2.41" shape="100.00,96.90 99.17,96.49 98.35,95.25"/>
    </edge>
    <edge id=":5_12" function="internal">
        <lane id=":5_12_0" index="0" speed="10.00" length="5.00" shape="95.25,98.35 96.61,98.16 97.57,97.57 98.16,96.61 98.35,95.25"/>
    </edge>
    <edge id=":5_13" function="internal">
        <lane id=":5_13_0" index="0" speed="10.00" length="9.50" shape="95.25,98.35 104.75,98.35"/>
    </edge>
    <edge id=":5_14" function="internal">
        <lane id=":5_14_0" index="0" speed="10.00" length="5.28" shape="95.25,98.35 98.05,98.75 100.05,99.95 100.11,100.05"/>
    </edge>
    <edge id=":5_15" function="internal">
        <lane id=":5_15_0" index="0" speed="10.00" length="2.41" shape="95.25,98.35 96.49,99.18 96.90,100.00"/>
    </edge>
    <edge id=":5_22" function="internal">
        <lane id=":5_22_0" index="0" speed="10.00" length="5.04" shape="100.11,100.05 101.25,101.95 101.65,104.75"/>
    </edge>
    <edge id=":5_23" function="internal">
        <lane id=":5_23_0" index="0" speed="10.00" length="2.41" shape="96.90,100.00 96.49,100.83 95.25,101.65"/>
    </edge>
    <edge id=":6_0" function="internal">
        <lane id=":6_0_0" index="0" speed="10.00" length="5.00" shape="198.35,104.75 198.16,103.39 197.57,102.43 196.61,101.84 195.25,101.65"/>
    </edge>
    <edge id=":6_1" function="internal">
        <lane id=":6_1_0" index="0" speed="10.00" length="9.50" shape="198.35,104.75 198.35,95.25"/>
    </edge>
    <edge id=":6_2" function="internal">
        <lane id=":6_2_0" index="0" speed="10.00" length="5.28" shape="198.35,104.75 198.75,101.95 199.95,99.95 200.05,99.89"/>
    </edge>
    <edge id=":6_3" function="internal">
        <lane id=":6_3_0" index="0" speed="10.00" length="2.41" shape="198.35,104.75 199.17,103.51 200.00,103.10"/>
    </edge>
    <edge id=":6_16" function="internal">
        <lane id=":6_16_0" index="0" speed="10.00" length="5.04" shape="200.05,99.89 201.95,98.75 204.75,98.35"/>
    </edge>
    <edge id=":6_17" function="internal">
        <lane id=":6_17_0" index="0" speed="10.00" length="2.41" shape="200.00,103.10 200.82,103.51 201.65,104.75"/>
    </edge>
    <edge id=":6_4" function="internal">
        <lane id=":6_4_0" index="0" speed="10.00" length="5.00" shape="204.75,101.65 203.39,101.84 202.42,102.43 201.84,103.39 201.65,104.75"/>
    </edge>
    <edge id=":6_5" function="internal">
        <lane id=":6_5_0" index="0" speed="10.00" length="9.50" shape="204.75,101.65 195.25,101.65"/>
    </edge>
    <edge id=":6_6" function="internal">
        <lane id=":6_6_0" index="0" speed="10.00" length="5.28" shape="204.75,101.65 201.95,101.25 199.95,100.05 199.89,99.95"/>
    </edge>
    <edge id=":6_7" function="internal">
        <lane id=":6_7_0" index="0" speed="10.00" length="2.41" shape="204.75,101.65 203.51,100.82 203.10,100.00"/>
    </edge>
    <edge id=":6_18" function="internal">
        <lane id=":6_18_0" index="0" speed="10.00" length="5.04" shape="199.89,99.95 198.75,98.05 198.35,95.25"/>
    </edge>
    <edge id=":6_19" function="internal">
        <lane id=":6_19_0" index="0" speed="10.00" length="2.41" shape="203.10,100.00 203.51,99.17 204.75,98.35"/>
    </edge>
    <edge id=":6_8" function="internal">
        <lane id=":6_8_0" index="0" speed="10.00" length="5.00" shape="201.65,95.25 201.84,96.61 202.43,97.57 203.39,98.16 204.75,98.35"/>
    </edge>
    <edge id=":6_9" function="internal">
        <lane id=":6_9_0" index="0" speed="10.00" length="9.50" shape="201.65,95.25 201.65,104.75"/>
    </edge>
    <edge id=":6_10" function="internal">
        <lane id=":6_10_0" index="0" speed="10.00" length="5.28" shape="201.65,95.25 201.25,98.05 200.05,100.05 199.95,100.11"/>
    </edge>
    <edge id=":6_11" function="internal">
        <lane id=":6_11_0" index="0" speed="10.00" length="2.41" shape="201.65,95.25 200.83,96.49 200.00,96.90"/>
    </edge>
    <edge id=":6_20" function="internal">
        <lane id=":6_20_0" index="0" speed="10.00" length="5.04" shape="199.95,100.11 198.05,101.25 195.25,101.65"/>
    </edge>
    <edge id=":6_21" function="internal">
        <lane id=":6_21_0" index="0" speed="10.00" length="2.41" shape="200.00,96.90 199.18,96.49 198.35,95.25"/>
    </edge>
    <edge id=":6_12" function="internal">
        <lane id=":6_12_0" index="0" speed="10.00" length="5.00" shape="195.25,98.35 196.61,98.16 197.58,97.57 198.16,96.61 198.35,95.25"/>
    </edge>
    <edge id=":6_13" function="internal">
        <lane id=":6_13_0" index="0" speed="10.00" length="9.50" shape="195.25,98.35 204.75,98.35"/>
    </edge>
    <edge id=":6_14" function="internal">
        <lane id=":6_14_0" index="0" speed="10.00" length="5.28" shape="195.25,98.35 198.05,98.75 200.05,99.95 200.11,100.05"/>
    </edge>
    <edge id=":6_15" function="internal">
        <lane id=":6_15_0" index="0" speed="10.00" length="2.41" shape="195.25,98.35 196.49,99.18 196.90,100.00"/>
    </edge>
    <edge id=":6_22" function="internal">
        <lane id=":6_22_0" index="0" speed="10.00" length="5.04" shape="200.11,100.05 201.25,101.95 201.65,104.75"/>
    </edge>
    <edge id=":6_23" function="internal">
        <lane id=":6_23_0" index="0" speed="10.00" length="2.41" shape="196.90,100.00 196.49,100.83 195.25,101.65"/>
    </edge>
    <edge id=":7_0" function="internal">
        <lane id=":7_0_0" index="0" speed="10.00" length="5.00" shape="298.35,104.75 298.16,103.39 297.58,102.43 296.61,101.84 295.25,101.65"/>
    </edge>
    <edge id=":7_1" function="internal">
        <lane id=":7_1_0" index="0" speed="10.00" length="9.50" shape="298.35,104.75 298.35,95.25"/>
    </edge>
    <edge id=":7_2" function="internal">
        <lane id=":7_2_0" index="0" speed="10.00" length="4.82" shape="298.35,104.75 299.17,103.51 300.00,103.10 300.82,103.51 301.65,104.75"/>
    </edge>
    <edge id=":7_3" function="internal">
        <lane id=":7_3_0" index="0" speed="10.00" length="9.50" shape="301.65,95.25 301.65,104.75"/>
    </edge>
    <edge id=":7_4" function="internal">
        <lane id=":7_4_0" index="0" speed="10.00" length="10.32" shape="301.65,95.25 301.25,98.05 300.05,100.05 298.05,101.25 295.25,101.65"/>
    </edge>
    <edge id=":7_5" function="internal">
        <lane id=":7_5_0" index="0" speed="10.00" length="4.82" shape="301.65,95.25 300.83,96.49 300.00,96.90 299.18,96.49 298.35,95.25"/>
    </edge>
    <edge id=":7_6" function="internal">
        <lane id=":7_6_0" index="0" speed="10.00" length="5.00" shape="295.25,98.35 296.61,98.16 297.58,97.57 298.16,96.61 298.35,95.25"/>
    </edge>
    <edge id=":7_7" function="internal">
        <lane id=":7_7_0" index="0" speed="10.00" length="10.32" shape="295.25,98.35 298.05,98.75 300.05,99.95 301.25,101.95 301.65,104.75"/>
    </edge>
    <edge id=":7_8" function="internal">
        <lane id=":7_8_0" index="0" speed="10.00" length="4.82" shape="295.25,98.35 296.49,99.18 296.90,100.00 296.49,100.83 295.25,101.65"/>
    </edge>
    <edge id=":8_0" function="internal">
        <lane id=":8_0_0" index="0" speed="10.00" length="9.50" shape="-1.65,204.75 -1.65,195.25"/>
    </edge>
    <edge id=":8_1" function="internal">
        <lane id=":8_1_0" index="0" speed="10.00" length="10.32" shape="-1.65,204.75 -1.25,201.95 -0.05,199.95 1.95,198.75 4.75,198.35"/>
    </edge>
    <edge id=":8_2" function="internal">
        <lane id=":8_2_0" index="0" speed="10.00" length="4.82" shape="-1.65,204.75 -0.83,203.51 -0.00,203.10 0.82,203.51 1.65,204.75"/>
    </edge>
    <edge id=":8_3" function="internal">
        <lane id=":8_3_0" index="0" speed="10.00" length="5.00" shape="4.75,201.65 3.39,201.84 2.42,202.43 1.84,203.39 1.65,204.75"/>
    </edge>
    <edge id=":8_4" function="internal">