<edges>
	<!--		estradas horizontais de baixo para cima	-->
	<edge id="a" from="0" to="1" priority="1" numLanes="1" speed="10" name="horizontal"/>
	<edge id="b" from="1" to="2" priority="1" numLanes="1" speed="10" name="horizontal"/>
	<edge id="c" from="2" to="3" priority="1" numLanes="1" speed="10" name="horizontal"/>	
	<edge id="a2" from="1" to="0" priority="1" numLanes="1" speed="10" name="horizontal"/>
	<edge id="b2" from="2" to="1" priority="1" numLanes="1" speed="10" name="horizontal"/>
	<edge id="c2" from="3" to="2" priority="1" numLanes="1" speed="10" name="horizontal"/>

	<edge id="d" from="4" to="5" priority="1" numLanes="1" speed="10" name="horizontal"/>
	<edge id="e" from="5" to="6" priority="1" numLanes="1" speed="10" name="horizontal"/>
	<edge id="f" from="6" to="7" priority="1" numLanes="1" speed="10" name="horizontal"/>
	<edge id="d2" from="5" to="4" priority="1" numLanes="1" speed="10" name="horizontal"/>
	<edge id="e2" from="6" to="5" priority="1" numLanes="1" speed="10" name="horizontal"/>
	<edge id="f2" from="7" to="6" priority="1" numLanes="1" speed="10" name="horizontal"/>

	<edge id="g" from="8" to="9" priority="1" numLanes="1" speed="10" name="horizontal"/>
	<edge id="h" from="9" to="10" priority="1" numLanes="1" speed="10" name="horizontal"/>
	<edge id="i" from="10" to="11" priority="1" numLanes="1" speed="10" name="horizontal"/>	
	<edge id="g2" from="9" to="8" priority="1" numLanes="1" speed="10" name="horizontal"/>
	<edge id="h2" from="10" to="9" priority="1" numLanes="1" speed="10" name="horizontal"/>
	<edge id="i2" from="11" to="10" priority="1" numLanes="1" speed="10" name="horizontal"/>

	<edge id="j" from="12" to="13" priority="1" numLanes="1" speed="10" name="horizontal"/>
	<edge id="k" from="13" to="14" priority="1" numLanes="1" speed="10" name="horizontal"/>
	<edge id="l" from="14" to="15" priority="1" numLanes="1" speed="10" name="horizontal"/>	
	<edge id="j2" from="13" to="12" priority="1" numLanes="1" speed="10" name="horizontal"/>
	<edge id="k2" from="14" to="13" priority="1" numLanes="1" speed="10" name="horizontal"/>
	<edge id="l2" from="15" to="14" priority="1" numLanes="1" speed="10" name="horizontal"/>

	<!--		estradas verticais	da esq para dir -->
	<edge id="m" from="0" to="4" priority="1" numLanes="1" speed="10" name="vertical"/>
	<edge id="n" from="1" to="5" priority="1" numLanes="1" speed="10" name="vertical" />
	<edge id="o" from="2" to="6" priority="1" numLanes="1" speed="10" name="vertical" />
	<edge id="p" from="3" to="7" priority="1" numLanes="1" speed="10" name="vertical" />
	<edge id="m2" from="4" to="0" priority="1" numLanes="1" speed="10" name="vertical" />
	<edge id="n2" from="5" to="1" priority="1" numLanes="1" speed="10" name="vertical" />
	<edge id="o2" from="6" to="2" priority="1" numLanes="1" speed="10" name="vertical" />
	<edge id="p2" from="7" to="3" priority="1" numLanes="1" speed="10" name="vertical" />

	<edge id="q" from="4" to="8" priority="1" numLanes="1" speed="10" name="vertical" />
	<edge id="r" from="5" to="9" priority="1" numLanes="1" speed="10" name="vertical" />
	<edge id="s" from="6" to="10" priority="1" numLanes="1" speed="10" name="vertical" />
	<edge id="t" from="7" to="11" priority="1" numLanes="1" speed="10" name="vertical" />
	<edge id="q2" from="8" to="4" priority="1" numLanes="1" speed="10" name="vertical"  />
	<edge id="r2" from="9" to="5" priority="1" numLanes="1" speed="10" name="vertical" />
	<edge id="s2" from="10" to="6" priority="1" numLanes="1" speed="10" name="vertical" />
	<edge id="t2" from="11" to="7" priority="1" numLanes="1" speed="10" name="vertical" />

	<edge id="u" from="8" to="12" priority="1" numLanes="1" speed="10" name="vertical"/>
	<edge id="v" from="9" to="13" priority="1" numLanes="1" speed="10" name="vertical"/>
	<edge id="w" from="10" to="14" priority="1" numLanes="1" speed="10" name="vertical"/>
	<edge id="y" from="11" to="15" priority="1" numLanes="1" speed="10" name="vertical"/>
	<edge id="u2" from="12" to="8" priority="1" numLanes="1" speed="10" name="vertical"/>
	<edge id="v2" from="13" to="9" priority="1" numLanes="1" speed="10" name="vertical"/>
	<edge id="w2" from="14" to="10" priority="1" numLanes="1" speed="10" name="vertical"/>
	<edge id="y2" from="15" to="11" priority="1" numLanes="1" speed="10" name="vertical"/>

</edges>